
**** 09/18/19 23:24:43 ****** PSpice 16.5.0 (April 2011) ****** ID# 0 ********

 ** Profile: "SCHEMATIC1-PRACTICA 04"  [ C:\PRACTICAS\practica 04-pspicefiles\schematic1\practica 04.sim ] 


 ****     CIRCUIT DESCRIPTION


******************************************************************************




** Creating circuit file "PRACTICA 04.cir" 
** WARNING: THIS AUTOMATICALLY GENERATED FILE MAY BE OVERWRITTEN BY SUBSEQUENT SIMULATIONS

*Libraries: 
* Profile Libraries :
* Local Libraries :
* From [PSPICE NETLIST] section of C:\Cadence\SPB_16.5\tools\PSpice\PSpice.ini file:
.lib "nom.lib" 

*Analysis directives: 
.TRAN  0 100m 0 50u 
.PROBE V(alias(*)) I(alias(*)) W(alias(*)) D(alias(*)) NOISE(alias(*)) 
.INC "..\SCHEMATIC1.net" 



**** INCLUDING SCHEMATIC1.net ****
* source PRACTICA 04
V_V1         N02808 0  AC 0
+SIN 0 311 50 0 0 0
C_C1         0 N02842  1mF  TC=0,0 
R_R2         N03007 N02842  100 TC=0,0 
D_D1         N02828 N02842 Dbreak 
D_D2         0 N02828 Dbreak 
L_L1         N02808 N02828  1mH  
C_C2         0 N03007  1mF  TC=0,0 

**** RESUMING "PRACTICA 04.cir" ****
.END

**** 09/18/19 23:24:43 ****** PSpice 16.5.0 (April 2011) ****** ID# 0 ********

 ** Profile: "SCHEMATIC1-PRACTICA 04"  [ C:\PRACTICAS\practica 04-pspicefiles\schematic1\practica 04.sim ] 


 ****     Diode MODEL PARAMETERS


******************************************************************************




               Dbreak          
          IS   10.000000E-15 
          RS     .1          
         CJO  100.000000E-15 


**** 09/18/19 23:24:43 ****** PSpice 16.5.0 (April 2011) ****** ID# 0 ********

 ** Profile: "SCHEMATIC1-PRACTICA 04"  [ C:\PRACTICAS\practica 04-pspicefiles\schematic1\practica 04.sim ] 


 ****     INITIAL TRANSIENT SOLUTION       TEMPERATURE =   27.000 DEG C


******************************************************************************



 NODE   VOLTAGE     NODE   VOLTAGE     NODE   VOLTAGE     NODE   VOLTAGE


(N02808)    0.0000 (N02828)    0.0000 (N02842)-123.2E-18 (N03007)-123.2E-18 




    VOLTAGE SOURCE CURRENTS
    NAME         CURRENT

    V_V1         0.000E+00

    TOTAL POWER DISSIPATION   0.00E+00  WATTS



          JOB CONCLUDED

**** 09/18/19 23:24:43 ****** PSpice 16.5.0 (April 2011) ****** ID# 0 ********

 ** Profile: "SCHEMATIC1-PRACTICA 04"  [ C:\PRACTICAS\practica 04-pspicefiles\schematic1\practica 04.sim ] 


 ****     JOB STATISTICS SUMMARY


******************************************************************************



  Total job time (using Solver 1)   =        1.08
