
**** 09/13/19 11:18:42 ****** PSpice 16.5.0 (April 2011) ****** ID# 0 ********

 ** Profile: "SCHEMATIC1-PRACTICA 04"  [ C:\PRACTICAS\practica 04-pspicefiles\schematic1\practica 04.sim ] 


 ****     CIRCUIT DESCRIPTION


******************************************************************************




** Creating circuit file "PRACTICA 04.cir" 
** WARNING: THIS AUTOMATICALLY GENERATED FILE MAY BE OVERWRITTEN BY SUBSEQUENT SIMULATIONS

*Libraries: 
* Profile Libraries :
* Local Libraries :
* From [PSPICE NETLIST] section of C:\Cadence\SPB_16.5\tools\PSpice\PSpice.ini file:
.lib "nom.lib" 

*Analysis directives: 
.TRAN  0 100m 0 50u 
.PROBE V(alias(*)) I(alias(*)) W(alias(*)) D(alias(*)) NOISE(alias(*)) 
.INC "..\SCHEMATIC1.net" 



**** INCLUDING SCHEMATIC1.net ****
* source PRACTICA 04
V_V1         N02808 N01530  AC 0
+SIN 0 311 50 0 0 0
C_C1         N01530 N02842  1mF  TC=0,0 
C_C2         0 N01530  1mF  TC=0,0 
R_R2         0 N02842  100 TC=0,0 
D_D1         N02828 N02842 Dbreak 
D_D2         0 N01559 Dbreak 
L_L1         N02808 N02828  1mH  

**** RESUMING "PRACTICA 04.cir" ****
.END

ERROR(ORPSIM-15141): Less than 2 connections at node N01559.
