
**** 09/18/19 23:16:59 ****** PSpice 16.5.0 (April 2011) ****** ID# 0 ********

 ** Profile: "SCHEMATIC1-intento"  [ C:\PRACTICAS\intento2-pspicefiles\schematic1\intento.sim ] 


 ****     CIRCUIT DESCRIPTION


******************************************************************************




** Creating circuit file "intento.cir" 
** WARNING: THIS AUTOMATICALLY GENERATED FILE MAY BE OVERWRITTEN BY SUBSEQUENT SIMULATIONS

*Libraries: 
* Profile Libraries :
* Local Libraries :
* From [PSPICE NETLIST] section of C:\Cadence\SPB_16.5\tools\PSpice\PSpice.ini file:
.lib "nom.lib" 

*Analysis directives: 
.TRAN  0 40m 0 50u 
.PROBE V(alias(*)) I(alias(*)) W(alias(*)) D(alias(*)) NOISE(alias(*)) 
.INC "..\SCHEMATIC1.net" 



**** INCLUDING SCHEMATIC1.net ****
* source INTENTO2
V_V1         N00427 0  AC 0
+SIN 0 311 50 0 0 0
D_D1         N00427 N00446 Dbreak 
L_L1         N00446 N00187 Lbreak 10mH 
R_R1         0 N00187  10 TC=0,0 

**** RESUMING intento.cir ****
.END

**** 09/18/19 23:16:59 ****** PSpice 16.5.0 (April 2011) ****** ID# 0 ********

 ** Profile: "SCHEMATIC1-intento"  [ C:\PRACTICAS\intento2-pspicefiles\schematic1\intento.sim ] 


 ****     Diode MODEL PARAMETERS


******************************************************************************




               Dbreak          
          IS   10.000000E-15 
          RS     .1          
         CJO  100.000000E-15 


**** 09/18/19 23:16:59 ****** PSpice 16.5.0 (April 2011) ****** ID# 0 ********

 ** Profile: "SCHEMATIC1-intento"  [ C:\PRACTICAS\intento2-pspicefiles\schematic1\intento.sim ] 


 ****     Inductor MODEL PARAMETERS


******************************************************************************




               Lbreak          
           L    1            


**** 09/18/19 23:16:59 ****** PSpice 16.5.0 (April 2011) ****** ID# 0 ********

 ** Profile: "SCHEMATIC1-intento"  [ C:\PRACTICAS\intento2-pspicefiles\schematic1\intento.sim ] 


 ****     INITIAL TRANSIENT SOLUTION       TEMPERATURE =   27.000 DEG C


******************************************************************************



 NODE   VOLTAGE     NODE   VOLTAGE     NODE   VOLTAGE     NODE   VOLTAGE


(N00187)    0.0000 (N00427)    0.0000 (N00446)    0.0000 




    VOLTAGE SOURCE CURRENTS
    NAME         CURRENT

    V_V1         0.000E+00

    TOTAL POWER DISSIPATION   0.00E+00  WATTS



          JOB CONCLUDED

**** 09/18/19 23:16:59 ****** PSpice 16.5.0 (April 2011) ****** ID# 0 ********

 ** Profile: "SCHEMATIC1-intento"  [ C:\PRACTICAS\intento2-pspicefiles\schematic1\intento.sim ] 


 ****     JOB STATISTICS SUMMARY


******************************************************************************



  Total job time (using Solver 1)   =         .33
