
**** 09/12/19 12:42:17 ****** PSpice 16.5.0 (April 2011) ****** ID# 0 ********

 ** Profile: "SCHEMATIC1-intento 2"  [ C:\PRACTICAS\intento2-pspicefiles\schematic1\intento 2.sim ] 


 ****     CIRCUIT DESCRIPTION


******************************************************************************




** Creating circuit file "intento 2.cir" 
** WARNING: THIS AUTOMATICALLY GENERATED FILE MAY BE OVERWRITTEN BY SUBSEQUENT SIMULATIONS

*Libraries: 
* Profile Libraries :
* Local Libraries :
* From [PSPICE NETLIST] section of C:\Cadence\SPB_16.5\tools\PSpice\PSpice.ini file:
.lib "nom.lib" 

*Analysis directives: 
.TRAN  0 40u 0 50m 
.PROBE V(alias(*)) I(alias(*)) W(alias(*)) D(alias(*)) NOISE(alias(*)) 
.INC "..\SCHEMATIC1.net" 



**** INCLUDING SCHEMATIC1.net ****
* source INTENTO2
V_V1         N00427 0  AC 0
+SIN 20 311 50 0 0 0
L_L1         N00446 N00187 10mh 10mH 
--------------------------------$
ERROR(ORPSIM-16153): unknown parameter
D_D1         N00427 N00446 Dbreak 
V_V2         N00187 0 150

**** RESUMING "intento 2.cir" ****
.END
